OpenDSS/Feeder_7773/Loads.dss
New Load.Load_31214400016-l_B_B bus1=31214400016-XFO.2 kV=0.416 model=1 kW=65.288819 kvar=29.85547835440785 Phases=1

New Load.Load_31214300027-l_C_C bus1=31214300027-XFO.3 kV=0.416 model=1 kW=62.415547 kvar=28.806858895195955 Phases=1

New Load.Load_31314200016-l_B_B bus1=31314200016-XFO.2 kV=0.416 model=1 kW=38.054936999999995 kvar=18.4562595223565 Phases=1

New Load.Load_31214400006-l_A_A bus1=31214400006-XFO.1 kV=0.416 model=1 kW=65.832518 kvar=29.102781361400393 Phases=1

New Load.Load_31314200067-l_B_B bus1=31314200067-XFO.2 kV=0.416 model=1 kW=38.662206999999995 kvar=17.43277980704298 Phases=1

New Load.Load_31214100025-l_B_B bus1=31214100025-XFO.2 kV=0.416 model=1 kW=82.401302 kvar=36.688757559545145 Phases=1

New Load.Load_31214300023-l_B_B bus1=31214300023-XFO.2 kV=0.416 model=1 kW=59.194422 kvar=26.895094296189022 Phases=1

New Load.Load_31314200032-l_A_A bus1=31314200032-XFO.1 kV=0.416 model=1 kW=51.493410000000004 kvar=23.74363769920202 Phases=1

New Load.Load_31214300013-l_B_B bus1=31214300013-XFO.2 kV=0.416 model=1 kW=48.978262 kvar=21.951178535445127 Phases=1

New Load.Load_31213300002-l_B_A_C_A_B_C bus1=31213300002-XFO.3.2.1 kV=0.48 model=1 kW=65.612781 kvar=32.38363423729443 Phases=3

New Load.Load_31214300012-l_B_B bus1=31214300012-XFO.2 kV=0.416 model=1 kW=65.406877 kvar=29.352594771517747 Phases=1

New Load.Load_31313100038-l_A_A bus1=31313100038-XFO.1 kV=0.416 model=1 kW=59.80050500000001 kvar=27.439917173007107 Phases=1

New Load.Load_31214100023-l_A_A bus1=31214100023-XFO.1 kV=0.416 model=1 kW=15.107472000000001 kvar=6.775970455277097 Phases=1

New Load.Load_31214100032-l_A_A bus1=31214100032-XFO.1 kV=0.416 model=1 kW=46.335974 kvar=20.700286025239357 Phases=1

New Load.Load_31214100038-l_A_A bus1=31214100038-XFO.1 kV=0.416 model=1 kW=17.939282 kvar=8.782815233142559 Phases=1

New Load.Load_31215200045-l_C_C bus1=31215200045-XFO.3 kV=0.416 model=1 kW=32.806391000000005 kvar=16.191817388341423 Phases=1

New Load.Load_31313100040-l_A_A bus1=31313100040-XFO.1 kV=0.416 model=1 kW=49.968526999999995 kvar=23.20441480880257 Phases=1

New Load.Load_31314100009-l_A_A bus1=31314100009-XFO.1 kV=0.416 model=1 kW=26.690181000000003 kvar=12.151914746281944 Phases=1

New Load.Load_31214300018-l_B_B bus1=31214300018-XFO.2 kV=0.416 model=1 kW=39.015197 kvar=17.492433268669576 Phases=1

New Load.Load_31215200041-l_C_C bus1=31215200041-XFO.3 kV=0.416 model=1 kW=14.627341000000001 kvar=7.2578831078132025 Phases=1

New Load.Load_31214100005-l_C_C bus1=31214100005-XFO.3 kV=0.416 model=1 kW=48.643435 kvar=21.814158523270184 Phases=1

New Load.Load_31214400011-l_C_C bus1=31214400011-XFO.3 kV=0.416 model=1 kW=82.912623 kvar=36.85560389330709 Phases=1

New Load.Load_31314200033-l_A_A bus1=31314200033-XFO.1 kV=0.416 model=1 kW=60.63757100000001 kvar=27.78246658960502 Phases=1

New Load.Load_31313100037-l_B_B bus1=31313100037-XFO.2 kV=0.416 model=1 kW=40.023624000000005 kvar=18.66830245209025 Phases=1

New Load.Load_31314100002-l_A_A bus1=31314100002-XFO.1 kV=0.416 model=1 kW=57.04529300000001 kvar=25.888415079519838 Phases=1

New Load.Load_31214300011-l_B_B bus1=31214300011-XFO.2 kV=0.416 model=1 kW=78.347057 kvar=35.19925269083614 Phases=1

New Load.Load_31214400020-l_A_A bus1=31214400020-XFO.1 kV=0.416 model=1 kW=48.45786 kvar=21.823015811732635 Phases=1

New Load.Load_31214100037-l_B_B bus1=31214100037-XFO.2 kV=0.416 model=1 kW=26.812186999999998 kvar=12.413841258902416 Phases=1

New Load.Load_31314100008-l_A_A bus1=31314100008-XFO.1 kV=0.416 model=1 kW=27.843912000000003 kvar=12.708851264991571 Phases=1

New Load.Load_31214100031-l_A_A bus1=31214100031-XFO.1 kV=0.416 model=1 kW=57.81484199999999 kvar=25.7369382016901 Phases=1

New Load.Load_31214300025-l_B_B bus1=31214300025-XFO.2 kV=0.416 model=1 kW=81.822463 kvar=36.027884522129256 Phases=1

New Load.Load_31214200002-l_A_A bus1=31214200002-XFO.1 kV=0.416 model=1 kW=40.327258 kvar=18.15656212012613 Phases=1

New Load.Load_31314200001-l_A_A bus1=31314200001-XFO.1 kV=0.416 model=1 kW=10.935464 kvar=5.397272642576618 Phases=1

New Load.Load_31314200072-l_A_A bus1=31314200072-XFO.1 kV=0.416 model=1 kW=21.870927000000002 kvar=10.794544745764808 Phases=1

New Load.Load_31214100020-l_A_A bus1=31214100020-XFO.1 kV=0.416 model=1 kW=43.322535 kvar=19.467107552570063 Phases=1

New Load.Load_31214300017-l_B_B bus1=31214300017-XFO.2 kV=0.416 model=1 kW=55.511328999999996 kvar=25.387875799169844 Phases=1

New Load.Load_31214300026-l_C_C bus1=31214300026-XFO.3 kV=0.416 model=1 kW=63.230504 kvar=28.461965715446365 Phases=1

New Load.Load_31214400002-l_A_A bus1=31214400002-XFO.1 kV=0.416 model=1 kW=60.149547 kvar=26.734760539123133 Phases=1

New Load.Load_31214100006-l_C_C bus1=31214100006-XFO.3 kV=0.416 model=1 kW=60.62454300000001 kvar=27.0563405133702 Phases=1

New Load.Load_31214100034-l_B_B bus1=31214100034-XFO.2 kV=0.416 model=1 kW=10.86765 kvar=5.295321926415831 Phases=1

New Load.Load_31214400012-l_C_C bus1=31214400012-XFO.3 kV=0.416 model=1 kW=59.620062999999995 kvar=26.64528088607167 Phases=1

New Load.Load_31314200074-l_A_A bus1=31314200074-XFO.1 kV=0.416 model=1 kW=21.870927000000002 kvar=10.794544745764808 Phases=1

New Load.Load_31214300014-l_B_B bus1=31214300014-XFO.2 kV=0.416 model=1 kW=26.169779 kvar=12.02375202256945 Phases=1

New Load.Load_31214100029-l_C_C bus1=31214100029-XFO.3 kV=0.416 model=1 kW=37.408581 kvar=17.301360320675105 Phases=1

New Load.Load_31314200002-l_C_C bus1=31314200002-XFO.3 kV=0.416 model=1 kW=36.318421 kvar=16.473640949497277 Phases=1

New Load.Load_31214400010-l_C_C bus1=31214400010-XFO.3 kV=0.416 model=1 kW=73.610129 kvar=32.70958118215402 Phases=1

New Load.Load_31314100006-l_A_A bus1=31314100006-XFO.1 kV=0.416 model=1 kW=35.051765 kvar=15.616094438279855 Phases=1

New Load.Load_31314200038-l_A_A bus1=31314200038-XFO.1 kV=0.416 model=1 kW=55.262182 kvar=25.667515400712073 Phases=1

New Load.Load_31213300015-l_A_B_C_A_B_C bus1=31213300015-XFO.3.2.1 kV=0.48 model=1 kW=968.656056 kvar=488.6188479134461 Phases=3

New Load.Load_31214300009-l_B_B bus1=31214300009-XFO.2 kV=0.416 model=1 kW=35.807099 kvar=16.306794206509036 Phases=1

New Load.Load_31214100040-l_A_A bus1=31214100040-XFO.1 kV=0.416 model=1 kW=28.115167999999997 kvar=13.116654129634714 Phases=1

New Load.Load_31314200075-l_C_C bus1=31314200075-XFO.3 kV=0.416 model=1 kW=43.741856 kvar=21.589090440144332 Phases=1

New Load.Load_31314200041-l_A_A bus1=31314200041-XFO.1 kV=0.416 model=1 kW=16.654464 kvar=8.002635811861914 Phases=1

New Load.Load_31214100014-l_B_B bus1=31214100014-XFO.2 kV=0.416 model=1 kW=35.761692 kvar=16.500210917655185 Phases=1

New Load.Load_31214300022-l_B_B bus1=31214300022-XFO.2 kV=0.416 model=1 kW=69.397552 kvar=31.112883032083374 Phases=1

New Load.Load_31214100002-l_B_B bus1=31214100002-XFO.2 kV=0.416 model=1 kW=45.71567600000001 kvar=20.997639794480193 Phases=1

New Load.Load_31215200034-l_C_C bus1=31215200034-XFO.3 kV=0.416 model=1 kW=37.173649999999995 kvar=16.73882381554684 Phases=1

New Load.Load_31313100035-l_B_B bus1=31313100035-XFO.2 kV=0.416 model=1 kW=61.764057 kvar=28.45545272952402 Phases=1

New Load.Load_31215200016-l_C_C bus1=31215200016-XFO.3 kV=0.416 model=1 kW=62.873566999999994 kvar=27.63750269769763 Phases=1

New Load.Load_31314200070-l_A_A bus1=31314200070-XFO.1 kV=0.416 model=1 kW=43.741856 kvar=21.589090440144332 Phases=1

New Load.Load_31213300006-l_A_B_C_A_B_C bus1=31213300006-XFO.3.2.1 kV=0.48 model=1 kW=656.1278309999999 kvar=323.83635252864195 Phases=3

New Load.Load_31314200004-l_C_C bus1=31314200004-XFO.3 kV=0.416 model=1 kW=72.560242 kvar=32.49193826600163 Phases=1

New Load.Load_31214300007-l_A_A bus1=31214300007-XFO.1 kV=0.416 model=1 kW=31.929349000000002 kvar=14.847116068613335 Phases=1

New Load.Load_31313100036-l_B_B bus1=31313100036-XFO.2 kV=0.416 model=1 kW=57.75522 kvar=26.772531558895164 Phases=1

New Load.Load_31214100027-l_B_B bus1=31214100027-XFO.2 kV=0.416 model=1 kW=32.915666 kvar=15.335542246460212 Phases=1

New Load.Load_31214100013-l_B_B bus1=31214100013-XFO.2 kV=0.416 model=1 kW=28.264418 kvar=13.262530481657384 Phases=1

New Load.Load_31314200043-l_C_C bus1=31314200043-XFO.3 kV=0.416 model=1 kW=37.721297 kvar=16.750936918049955 Phases=1

New Load.Load_31213300003-l_C_C bus1=31213300003-XFO.3 kV=0.416 model=1 kW=4.374185 kvar=2.1589087854624442 Phases=1

New Load.Load_31215200021-l_C_C bus1=31215200021-XFO.3 kV=0.416 model=1 kW=11.944780999999999 kvar=5.3969146819704115 Phases=1

New Load.Load_31314200034-l_C_C bus1=31314200034-XFO.3 kV=0.416 model=1 kW=52.981966 kvar=24.43759328147187 Phases=1

New Load.Load_31314200022-l_B_B bus1=31314200022-XFO.2 kV=0.416 model=1 kW=59.068468 kvar=25.868357688057984 Phases=1

New Load.Load_31314200065-l_C_C bus1=31314200065-XFO.3 kV=0.416 model=1 kW=18.849 kvar=8.81589831738495 Phases=1

New Load.Load_31314200073-l_C_C bus1=31314200073-XFO.3 kV=0.416 model=1 kW=32.806391000000005 kvar=16.191817388341423 Phases=1

New Load.Load_31214300020-l_B_B bus1=31214300020-XFO.2 kV=0.416 model=1 kW=56.774037 kvar=25.480612214876697 Phases=1

New Load.Load_31214400007-l_A_A bus1=31214400007-XFO.1 kV=0.416 model=1 kW=10.736561999999997 kvar=5.072078484456386 Phases=1

New Load.Load_31314200069-l_A_A bus1=31314200069-XFO.1 kV=0.416 model=1 kW=32.692577 kvar=17.067434949086802 Phases=1

New Load.Load_31214300010-l_B_B bus1=31214300010-XFO.2 kV=0.416 model=1 kW=48.783604999999994 kvar=21.9987188945686 Phases=1

New Load.Load_31214100018-l_A_A bus1=31214100018-XFO.1 kV=0.416 model=1 kW=56.764955 kvar=25.519295285537723 Phases=1

New Load.Load_31214100030-l_C_C bus1=31214100030-XFO.3 kV=0.416 model=1 kW=55.55673600000001 kvar=25.194459088023695 Phases=1

New Load.Load_31214300004-l_B_B bus1=31214300004-XFO.2 kV=0.416 model=1 kW=22.635936 kvar=10.662409877572948 Phases=1

New Load.Load_31215200015-l_C_C bus1=31215200015-XFO.3 kV=0.416 model=1 kW=85.59123600000001 kvar=37.95176276302774 Phases=1

New Load.Load_31214100024-l_A_A bus1=31214100024-XFO.1 kV=0.416 model=1 kW=10.935464 kvar=5.397272642576618 Phases=1

New Load.Load_31214100026-l_B_B bus1=31214100026-XFO.2 kV=0.416 model=1 kW=52.91444900000001 kvar=23.94356698704422 Phases=1

New Load.Load_31313100039-l_A_A bus1=31313100039-XFO.1 kV=0.416 model=1 kW=49.792032000000006 kvar=23.174588077989277 Phases=1

New Load.Load_31314100003-l_A_A bus1=31314100003-XFO.1 kV=0.416 model=1 kW=3.832343 kvar=1.653094849041849 Phases=1

New Load.Load_31214400004-l_C_C bus1=31214400004-XFO.3 kV=0.416 model=1 kW=12.777011 kvar=6.150882095699353 Phases=1

New Load.Load_31214300006-l_B_B bus1=31214300006-XFO.2 kV=0.416 model=1 kW=26.708343999999997 kvar=12.074548195733597 Phases=1

New Load.Load_31214400017-l_B_B bus1=31214400017-XFO.2 kV=0.416 model=1 kW=42.543905 kvar=19.65726804044925 Phases=1

New Load.Load_31214100017-l_A_A bus1=31214100017-XFO.1 kV=0.416 model=1 kW=61.176137000000004 kvar=27.83326317199546 Phases=1

New Load.Load_31215200030-l_C_C bus1=31215200030-XFO.3 kV=0.416 model=1 kW=61.126782999999996 kvar=27.261870327019462 Phases=1

New Load.Load_31314200007-l_C_C bus1=31314200007-XFO.3 kV=0.416 model=1 kW=57.452771 kvar=25.715968350112963 Phases=1

New Load.Load_31214400008-l_C_C bus1=31214400008-XFO.3 kV=0.416 model=1 kW=26.504606 kvar=12.160772034744394 Phases=1

New Load.Load_31214300024-l_B_B bus1=31214300024-XFO.2 kV=0.416 model=1 kW=67.90899499999999 kvar=30.4189269104251 Phases=1

New Load.Load_31214400001-l_A_A bus1=31214400001-XFO.1 kV=0.416 model=1 kW=11.51914 kvar=5.646728092087767 Phases=1

New Load.Load_31314200068-l_C_C bus1=31314200068-XFO.3 kV=0.416 model=1 kW=43.741856 kvar=21.589090440144332 Phases=1

New Load.Load_31214100004-l_B_B bus1=31214100004-XFO.2 kV=0.416 model=1 kW=42.318055 kvar=19.056047925271532 Phases=1

New Load.Load_31213300014-l_A_B_C_A_B_C bus1=31213300014-XFO.3.2.1 kV=0.48 model=1 kW=916.590516 kvar=467.31225995998096 Phases=3

New Load.Load_31214100019-l_B_B bus1=31214100019-XFO.2 kV=0.416 model=1 kW=38.11456 kvar=17.420666704539865 Phases=1

New Load.Load_31214300008-l_A_A bus1=31214300008-XFO.1 kV=0.416 model=1 kW=37.313818999999995 kvar=16.92338364745683 Phases=1

New Load.Load_31214100028-l_C_C bus1=31214100028-XFO.3 kV=0.416 model=1 kW=61.248789 kvar=27.523796839639935 Phases=1

New Load.Load_31314200037-l_A_A bus1=31314200037-XFO.1 kV=0.416 model=1 kW=21.640538 kvar=10.212667179613389 Phases=1

New Load.Load_31214100039-l_C_C bus1=31214100039-XFO.3 kV=0.416 model=1 kW=13.315279 kvar=6.593753847130358 Phases=1

New Load.Load_31314200066-l_B_B bus1=31314200066-XFO.2 kV=0.416 model=1 kW=21.305711 kvar=10.075647167438449 Phases=1

New Load.Load_31214100022-l_C_C bus1=31214100022-XFO.3 kV=0.416 model=1 kW=38.123641000000006 kvar=17.381983224652544 Phases=1

New Load.Load_31314200011-l_A_A bus1=31314200011-XFO.1 kV=0.416 model=1 kW=33.825384 kvar=15.368625330702603 Phases=1

New Load.Load_31214300019-l_B_B bus1=31214300019-XFO.2 kV=0.416 model=1 kW=66.99533 kvar=29.6210344002227 Phases=1

New Load.Load_31213300011-l_A_A bus1=31213300011-XFO.1 kV=0.416 model=1 kW=21.870927000000002 kvar=10.794544745764808 Phases=1

New Load.Load_31314200071-l_C_C bus1=31314200071-XFO.3 kV=0.416 model=1 kW=32.806391000000005 kvar=16.191817388341423 Phases=1

New Load.Load_31214400013-l_C_C bus1=31214400013-XFO.3 kV=0.416 model=1 kW=23.907725 kvar=10.716462813392477 Phases=1

New Load.Load_31314100004-l_A_A bus1=31314100004-XFO.1 kV=0.416 model=1 kW=9.388174 kvar=4.562682324870237 Phases=1

New Load.Load_31214100035-l_C_C bus1=31214100035-XFO.3 kV=0.416 model=1 kW=14.057584 kvar=6.55832699973629 Phases=1

New Load.Load_31214300029-l_B_B bus1=31214300029-XFO.2 kV=0.416 model=1 kW=43.258964999999996 kvar=19.73789094442669 Phases=1

New Load.Load_31314200003-l_C_C bus1=31314200003-XFO.3 kV=0.416 model=1 kW=52.972885000000005 kvar=24.47627676135919 Phases=1

New Load.Load_31214300021-l_B_B bus1=31214300021-XFO.2 kV=0.416 model=1 kW=55.294561 kvar=24.7479726133311 Phases=1

New Load.Load_31214100009-l_B_B bus1=31214100009-XFO.2 kV=0.416 model=1 kW=37.299604 kvar=17.765560293515748 Phases=1

New Load.Load_31214300015-l_C_C bus1=31214300015-XFO.3 kV=0.416 model=1 kW=49.90100900000001 kvar=22.71038810514863 Phases=1

New Load.Load_31214100001-l_C_C bus1=31214100001-XFO.3 kV=0.416 model=1 kW=30.124128000000002 kvar=13.938773384231773 Phases=1

New Load.Load_31214100016-l_C_C bus1=31214100016-XFO.3 kV=0.416 model=1 kW=21.183705000000003 kvar=9.81372065481798 Phases=1

New Load.Load_31214400009-l_C_C bus1=31214400009-XFO.3 kV=0.416 model=1 kW=57.06345600000001 kvar=25.81104852897149 Phases=1

New Load.Load_31214400015-l_B_B bus1=31214400015-XFO.2 kV=0.416 model=1 kW=55.212828 kvar=25.096122555736077 Phases=1

New Load.Load_31213300016-l_A_B_C_A_B_C bus1=31213300016-XFO.3.2.1 kV=0.48 model=1 kW=1093.546389 kvar=539.7272559814705 Phases=3

New Load.Load_31214100036-l_C_C bus1=31214100036-XFO.3 kV=0.416 model=1 kW=27.305346000000004 kvar=12.658054552439 Phases=1

New Load.Load_31314200035-l_B_B bus1=31314200035-XFO.2 kV=0.416 model=1 kW=45.493774 kvar=21.161229774813037 Phases=1

New Load.Load_31214100015-l_A_A bus1=31214100015-XFO.1 kV=0.416 model=1 kW=42.340165000000006 kvar=19.74349093084533 Phases=1

New Load.Load_31214300028-l_B_B bus1=31214300028-XFO.2 kV=0.416 model=1 kW=53.17662299999999 kvar=24.390052922348392 Phases=1

New Load.Load_31214100008-l_B_B bus1=31214100008-XFO.2 kV=0.416 model=1 kW=32.209686999999995 kvar=15.216235862595452 Phases=1

New Load.Load_31214300016-l_B_B bus1=31214300016-XFO.2 kV=0.416 model=1 kW=40.942423 kvar=18.662701926283184 Phases=1

New Load.Load_31214100012-l_C_C bus1=31214100012-XFO.3 kV=0.416 model=1 kW=6.922382 kvar=3.3416169547040573 Phases=1

New Load.Load_31214400019-l_C_C bus1=31214400019-XFO.3 kV=0.416 model=1 kW=50.099614 kvar=23.427657841535723 Phases=1

New Load.Load_31214300001-l_B_B bus1=31214300001-XFO.2 kV=0.416 model=1 kW=31.110445000000002 kvar=14.427199562078652 Phases=1

New Load.Load_31314200023-l_B_B bus1=31314200023-XFO.2 kV=0.416 model=1 kW=24.102382 kvar=10.668922454269 Phases=1

New Load.Load_31214100021-l_A_A bus1=31214100021-XFO.1 kV=0.416 model=1 kW=62.855404 kvar=27.71486937840811 Phases=1

New Load.Load_31314100005-l_A_A bus1=31314100005-XFO.1 kV=0.416 model=1 kW=62.104017999999996 kvar=27.788979575527367 Phases=1

New Load.Load_31214400018-l_C_C bus1=31214400018-XFO.3 kV=0.416 model=1 kW=45.046023000000005 kvar=20.723600179356602 Phases=1

New Load.Load_31215200004-l_C_C bus1=31215200004-XFO.3 kV=0.416 model=1 kW=40.860690000000005 kvar=19.010851868688157 Phases=1

New Load.Load_31314200042-l_B_B bus1=31314200042-XFO.2 kV=0.416 model=1 kW=33.671 kvar=16.026242014689394 Phases=1

New Load.Load_31214100033-l_B_B bus1=31214100033-XFO.2 kV=0.416 model=1 kW=18.717912000000002 kvar=8.592654875425506 Phases=1

New Load.Load_31314200040-l_A_A bus1=31314200040-XFO.1 kV=0.416 model=1 kW=24.106330000000003 kvar=11.433732549779569 Phases=1

New Load.Load_31314200013-l_C_C bus1=31314200013-XFO.3 kV=0.416 model=1 kW=48.019189 kvar=21.34670219700045 Phases=1

New Load.Load_31214100007-l_B_B bus1=31214100007-XFO.2 kV=0.416 model=1 kW=27.363782 kvar=13.190764456916101 Phases=1

New Load.Load_31314200031-l_C_C bus1=31314200031-XFO.3 kV=0.416 model=1 kW=46.145264 kvar=21.512635940484973 Phases=1

New Load.Load_31214300030-l_B_B bus1=31214300030-XFO.2 kV=0.416 model=1 kW=47.882968000000005 kvar=21.926952330438894 Phases=1

New Load.Load_31214100010-l_C_C bus1=31214100010-XFO.3 kV=0.416 model=1 kW=54.027906 kvar=23.89042664150211 Phases=1

